2
co, iteration 1
C    0.000   0.000  -0.010
O    0.000   0.000   1.116
2
co, iteration 2
C    0.000   0.000  -0.011
O    0.000   0.000   1.117
2
co, iteration 3
C    0.000   0.000  -0.011
O    0.000   0.000   1.117
2
co, iteration 4
C    0.000   0.000  -0.011
O    0.000   0.000   1.117
2
co, iteration 5
C    0.000   0.000  -0.011
O    0.000   0.000   1.117
2
co, iteration 6
C    0.000   0.000  -0.011
O    0.000   0.000   1.117
2
co, iteration 7
C    0.000   0.000  -0.011
O    0.000   0.000   1.117
2
co, iteration 8
C    0.000   0.000  -0.011
O    0.000   0.000   1.117
2
co, iteration 9
C    0.000   0.000  -0.011
O    0.000   0.000   1.117
