2
hf, iteration 1
H    0.000   0.000   0.034
F    0.000   0.000   0.966
2
hf, iteration 2
H    0.000   0.000   0.040
F    0.000   0.000   0.960
2
hf, iteration 3
H    0.000   0.000   0.041
F    0.000   0.000   0.959
2
hf, iteration 4
H    0.000   0.000   0.041
F    0.000   0.000   0.959
2
hf, iteration 5
H    0.000   0.000   0.041
F    0.000   0.000   0.959
2
hf, iteration 6
H    0.000   0.000   0.041
F    0.000   0.000   0.959
2
hf, iteration 7
H    0.000   0.000   0.041
F    0.000   0.000   0.959
2
hf, iteration 8
H    0.000   0.000   0.041
F    0.000   0.000   0.959
2
hf, iteration 9
H    0.000   0.000   0.041
F    0.000   0.000   0.959
2
hf, iteration 10
H    0.000   0.000   0.041
F    0.000   0.000   0.959
2
hf, iteration 11
H    0.000   0.000   0.041
F    0.000   0.000   0.959
