4
displacement 1
C      -0.000000      0.000000      0.613078 
O       0.000000      0.000000     -0.611522 
H      -0.000000      0.931892      1.200717 
H      -0.000000     -0.931892      1.200717 
4
displacement 2
C      -0.004531     -0.000000      0.613063 
O       0.001103      0.000000     -0.611524 
H       0.018241      0.931544      1.200813 
H       0.018241     -0.931544      1.200813 
4
displacement 3
C      -0.008989      0.000000      0.613021 
O       0.002189     -0.000000     -0.611528 
H       0.036179      0.930521      1.201097 
H       0.036179     -0.930521      1.201097 
4
displacement 4
C      -0.013300      0.000000      0.612954 
O       0.003241     -0.000000     -0.611534 
H       0.053517      0.928888      1.201549 
H       0.053517     -0.928889      1.201549 
4
displacement 5
C      -0.017396      0.000000      0.612866 
O       0.004243     -0.000000     -0.611543 
H       0.069970      0.926750      1.202141 
H       0.069970     -0.926750      1.202141 
4
displacement 6
C      -0.021211      0.000000      0.612763 
O       0.005178     -0.000000     -0.611553 
H       0.085275      0.924240      1.202833 
H       0.085275     -0.924240      1.202834 
4
displacement 7
C      -0.024684      0.000000      0.612651 
O       0.006033     -0.000000     -0.611564 
H       0.099191      0.921518      1.203583 
H       0.099191     -0.921519      1.203583 
4
displacement 8
C      -0.027764     -0.000000      0.612538 
O       0.006792      0.000000     -0.611574 
H       0.111508      0.918756      1.204343 
H       0.111508     -0.918756      1.204343 
4
displacement 9
C      -0.030401      0.000000      0.612431 
O       0.007445     -0.000000     -0.611584 
H       0.122043      0.916127      1.205064 
H       0.122043     -0.916127      1.205064 
4
displacement 10
C      -0.032560      0.000000      0.612335 
O       0.007981     -0.000000     -0.611593 
H       0.130654      0.913793      1.205703 
H       0.130654     -0.913794      1.205703 
4
displacement 11
C      -0.034205      0.000000      0.612258 
O       0.008390     -0.000000     -0.611601 
H       0.137208      0.911905      1.206219 
H       0.137208     -0.911905      1.206219 
4
displacement 12
C      -0.035316      0.000000      0.612204 
O       0.008667     -0.000000     -0.611606 
H       0.141630      0.910575      1.206582 
H       0.141630     -0.910576      1.206582 
4
displacement 13
C      -0.035876      0.000000      0.612176 
O       0.008807     -0.000000     -0.611608 
H       0.143857      0.909889      1.206769 
H       0.143857     -0.909889      1.206769 
4
displacement 14
C      -0.035876      0.000000      0.612176 
O       0.008807     -0.000000     -0.611608 
H       0.143857      0.909889      1.206769 
H       0.143857     -0.909889      1.206769 
4
displacement 15
C      -0.035316      0.000000      0.612204 
O       0.008667     -0.000000     -0.611606 
H       0.141630      0.910575      1.206582 
H       0.141630     -0.910576      1.206582 
4
displacement 16
C      -0.034205      0.000000      0.612258 
O       0.008390     -0.000000     -0.611601 
H       0.137208      0.911905      1.206219 
H       0.137208     -0.911905      1.206219 
4
displacement 17
C      -0.032560      0.000000      0.612335 
O       0.007981     -0.000000     -0.611593 
H       0.130654      0.913793      1.205703 
H       0.130654     -0.913794      1.205703 
4
displacement 18
C      -0.030401      0.000000      0.612431 
O       0.007445     -0.000000     -0.611584 
H       0.122043      0.916127      1.205064 
H       0.122043     -0.916127      1.205064 
4
displacement 19
C      -0.027764     -0.000000      0.612538 
O       0.006792      0.000000     -0.611574 
H       0.111508      0.918756      1.204343 
H       0.111508     -0.918756      1.204343 
4
displacement 20
C      -0.024684      0.000000      0.612651 
O       0.006033     -0.000000     -0.611564 
H       0.099191      0.921518      1.203583 
H       0.099191     -0.921519      1.203583 
4
displacement 21
C      -0.021211      0.000000      0.612763 
O       0.005178     -0.000000     -0.611553 
H       0.085275      0.924240      1.202833 
H       0.085275     -0.924240      1.202834 
4
displacement 22
C      -0.017396      0.000000      0.612866 
O       0.004243     -0.000000     -0.611543 
H       0.069970      0.926750      1.202141 
H       0.069970     -0.926750      1.202141 
4
displacement 23
C      -0.013300      0.000000      0.612954 
O       0.003241     -0.000000     -0.611534 
H       0.053517      0.928888      1.201549 
H       0.053517     -0.928889      1.201549 
4
displacement 24
C      -0.008989      0.000000      0.613021 
O       0.002189     -0.000000     -0.611528 
H       0.036179      0.930521      1.201097 
H       0.036179     -0.930521      1.201097 
4
displacement 25
C      -0.004531     -0.000000      0.613063 
O       0.001103      0.000000     -0.611524 
H       0.018241      0.931544      1.200813 
H       0.018241     -0.931544      1.200813 
4
displacement 26
C      -0.000000      0.000000      0.613078 
O       0.000000      0.000000     -0.611522 
H      -0.000000      0.931892      1.200717 
H      -0.000000     -0.931892      1.200717 
4
displacement 27
C       0.004531     -0.000000      0.613063 
O      -0.001103      0.000000     -0.611524 
H      -0.018241      0.931544      1.200813 
H      -0.018241     -0.931544      1.200813 
4
displacement 28
C       0.008989      0.000000      0.613021 
O      -0.002189     -0.000000     -0.611528 
H      -0.036179      0.930521      1.201097 
H      -0.036179     -0.930521      1.201097 
4
displacement 29
C       0.013300      0.000000      0.612954 
O      -0.003241     -0.000000     -0.611534 
H      -0.053517      0.928888      1.201549 
H      -0.053517     -0.928889      1.201549 
4
displacement 30
C       0.017396      0.000000      0.612866 
O      -0.004243     -0.000000     -0.611543 
H      -0.069970      0.926750      1.202141 
H      -0.069970     -0.926750      1.202141 
4
displacement 31
C       0.021211      0.000000      0.612763 
O      -0.005178     -0.000000     -0.611553 
H      -0.085275      0.924240      1.202833 
H      -0.085275     -0.924240      1.202834 
4
displacement 32
C       0.024684      0.000000      0.612651 
O      -0.006033     -0.000000     -0.611564 
H      -0.099191      0.921518      1.203583 
H      -0.099191     -0.921519      1.203583 
4
displacement 33
C       0.027764     -0.000000      0.612538 
O      -0.006792      0.000000     -0.611574 
H      -0.111508      0.918756      1.204343 
H      -0.111508     -0.918756      1.204343 
4
displacement 34
C       0.030401      0.000000      0.612431 
O      -0.007445     -0.000000     -0.611584 
H      -0.122043      0.916127      1.205064 
H      -0.122043     -0.916127      1.205064 
4
displacement 35
C       0.032560      0.000000      0.612335 
O      -0.007981     -0.000000     -0.611593 
H      -0.130654      0.913793      1.205703 
H      -0.130654     -0.913794      1.205703 
4
displacement 36
C       0.034205      0.000000      0.612258 
O      -0.008390     -0.000000     -0.611601 
H      -0.137208      0.911905      1.206219 
H      -0.137208     -0.911905      1.206219 
4
displacement 37
C       0.035316      0.000000      0.612204 
O      -0.008667     -0.000000     -0.611606 
H      -0.141630      0.910575      1.206582 
H      -0.141630     -0.910576      1.206582 
4
displacement 38
C       0.035876      0.000000      0.612176 
O      -0.008807     -0.000000     -0.611608 
H      -0.143857      0.909889      1.206769 
H      -0.143857     -0.909889      1.206769 
4
displacement 39
C       0.035876      0.000000      0.612176 
O      -0.008807     -0.000000     -0.611608 
H      -0.143857      0.909889      1.206769 
H      -0.143857     -0.909889      1.206769 
4
displacement 40
C       0.035316      0.000000      0.612204 
O      -0.008667     -0.000000     -0.611606 
H      -0.141630      0.910575      1.206582 
H      -0.141630     -0.910576      1.206582 
4
displacement 41
C       0.034205      0.000000      0.612258 
O      -0.008390     -0.000000     -0.611601 
H      -0.137208      0.911905      1.206219 
H      -0.137208     -0.911905      1.206219 
4
displacement 42
C       0.032560      0.000000      0.612335 
O      -0.007981     -0.000000     -0.611593 
H      -0.130654      0.913793      1.205703 
H      -0.130654     -0.913794      1.205703 
4
displacement 43
C       0.030401      0.000000      0.612431 
O      -0.007445     -0.000000     -0.611584 
H      -0.122043      0.916127      1.205064 
H      -0.122043     -0.916127      1.205064 
4
displacement 44
C       0.027764     -0.000000      0.612538 
O      -0.006792      0.000000     -0.611574 
H      -0.111508      0.918756      1.204343 
H      -0.111508     -0.918756      1.204343 
4
displacement 45
C       0.024684      0.000000      0.612651 
O      -0.006033     -0.000000     -0.611564 
H      -0.099191      0.921518      1.203583 
H      -0.099191     -0.921519      1.203583 
4
displacement 46
C       0.021211      0.000000      0.612763 
O      -0.005178     -0.000000     -0.611553 
H      -0.085275      0.924240      1.202833 
H      -0.085275     -0.924240      1.202834 
4
displacement 47
C       0.017396      0.000000      0.612866 
O      -0.004243     -0.000000     -0.611543 
H      -0.069970      0.926750      1.202141 
H      -0.069970     -0.926750      1.202141 
4
displacement 48
C       0.013300      0.000000      0.612954 
O      -0.003241     -0.000000     -0.611534 
H      -0.053517      0.928888      1.201549 
H      -0.053517     -0.928889      1.201549 
4
displacement 49
C       0.008989      0.000000      0.613021 
O      -0.002189     -0.000000     -0.611528 
H      -0.036179      0.930521      1.201097 
H      -0.036179     -0.930521      1.201097 
4
displacement 50
C       0.004531     -0.000000      0.613063 
O      -0.001103      0.000000     -0.611524 
H      -0.018241      0.931544      1.200813 
H      -0.018241     -0.931544      1.200813 
