3
displacement 1
O      -0.000000      0.062667      0.000000 
H      -0.000000     -0.497365      0.792001 
H       0.000000     -0.497365     -0.792001 
3
displacement 2
O      -0.000000      0.060713      0.000000 
H      -0.000000     -0.481859      0.804062 
H       0.000000     -0.481859     -0.804062 
3
displacement 3
O       0.000000      0.058762     -0.000000 
H      -0.000000     -0.466375      0.815556 
H       0.000000     -0.466375     -0.815556 
3
displacement 4
O       0.000000      0.056848     -0.000000 
H      -0.000000     -0.451181      0.826322 
H       0.000000     -0.451181     -0.826321 
3
displacement 5
O      -0.000000      0.055002      0.000000 
H      -0.000000     -0.436537      0.836235 
H       0.000000     -0.436537     -0.836236 
3
displacement 6
O       0.000000      0.053261     -0.000000 
H      -0.000000     -0.422716      0.845190 
H       0.000000     -0.422716     -0.845189 
3
displacement 7
O       0.000000      0.051657     -0.000000 
H      -0.000000     -0.409982      0.853106 
H       0.000000     -0.409982     -0.853106 
3
displacement 8
O       0.000000      0.050219     -0.000000 
H      -0.000000     -0.398570      0.859935 
H       0.000000     -0.398570     -0.859935 
3
displacement 9
O      -0.000000      0.048974      0.000000 
H      -0.000000     -0.388694      0.865648 
H       0.000000     -0.388694     -0.865648 
3
displacement 10
O       0.000000      0.047949     -0.000000 
H      -0.000000     -0.380555      0.870221 
H       0.000000     -0.380555     -0.870220 
3
displacement 11
O       0.000000      0.047162     -0.000000 
H      -0.000000     -0.374311      0.873648 
H       0.000000     -0.374311     -0.873648 
3
displacement 12
O       0.000000      0.046628     -0.000000 
H      -0.000000     -0.370073      0.875934 
H       0.000000     -0.370073     -0.875933 
3
displacement 13
O      -0.000000      0.046359      0.000000 
H      -0.000000     -0.367934      0.877076 
H       0.000000     -0.367934     -0.877076 
3
displacement 14
O      -0.000000      0.046359      0.000000 
H      -0.000000     -0.367934      0.877076 
H       0.000000     -0.367934     -0.877076 
3
displacement 15
O       0.000000      0.046628     -0.000000 
H      -0.000000     -0.370073      0.875934 
H       0.000000     -0.370073     -0.875933 
3
displacement 16
O       0.000000      0.047162     -0.000000 
H      -0.000000     -0.374311      0.873648 
H       0.000000     -0.374311     -0.873648 
3
displacement 17
O       0.000000      0.047949     -0.000000 
H      -0.000000     -0.380555      0.870221 
H       0.000000     -0.380555     -0.870220 
3
displacement 18
O      -0.000000      0.048974      0.000000 
H      -0.000000     -0.388694      0.865648 
H       0.000000     -0.388694     -0.865648 
3
displacement 19
O       0.000000      0.050219     -0.000000 
H      -0.000000     -0.398570      0.859935 
H       0.000000     -0.398570     -0.859935 
3
displacement 20
O       0.000000      0.051657     -0.000000 
H      -0.000000     -0.409982      0.853106 
H       0.000000     -0.409982     -0.853106 
3
displacement 21
O       0.000000      0.053261     -0.000000 
H      -0.000000     -0.422716      0.845190 
H       0.000000     -0.422716     -0.845189 
3
displacement 22
O      -0.000000      0.055002      0.000000 
H      -0.000000     -0.436537      0.836235 
H       0.000000     -0.436537     -0.836236 
3
displacement 23
O       0.000000      0.056848     -0.000000 
H      -0.000000     -0.451181      0.826322 
H       0.000000     -0.451181     -0.826321 
3
displacement 24
O       0.000000      0.058762     -0.000000 
H      -0.000000     -0.466375      0.815556 
H       0.000000     -0.466375     -0.815556 
3
displacement 25
O      -0.000000      0.060713      0.000000 
H      -0.000000     -0.481859      0.804062 
H       0.000000     -0.481859     -0.804062 
3
displacement 26
O      -0.000000      0.062667      0.000000 
H      -0.000000     -0.497365      0.792001 
H       0.000000     -0.497365     -0.792001 
3
displacement 27
O      -0.000000      0.064590      0.000000 
H      -0.000000     -0.512633      0.779560 
H       0.000000     -0.512632     -0.779561 
3
displacement 28
O       0.000000      0.066453     -0.000000 
H      -0.000000     -0.527418      0.766953 
H       0.000000     -0.527418     -0.766953 
3
displacement 29
O      -0.000000      0.068227      0.000000 
H      -0.000000     -0.541497      0.754412 
H       0.000000     -0.541496     -0.754412 
3
displacement 30
O      -0.000000      0.069888      0.000000 
H      -0.000000     -0.554679      0.742170 
H       0.000000     -0.554678     -0.742171 
3
displacement 31
O      -0.000000      0.071413      0.000000 
H      -0.000000     -0.566784      0.730483 
H       0.000000     -0.566783     -0.730484 
3
displacement 32
O       0.000000      0.072783     -0.000000 
H      -0.000000     -0.577655      0.719604 
H       0.000000     -0.577657     -0.719602 
3
displacement 33
O      -0.000000      0.073983      0.000000 
H      -0.000000     -0.587179      0.709764 
H       0.000000     -0.587177     -0.709767 
3
displacement 34
O      -0.000000      0.075000      0.000000 
H      -0.000000     -0.595254      0.701184 
H       0.000000     -0.595253     -0.701186 
3
displacement 35
O       0.000000      0.075825     -0.000000 
H      -0.000000     -0.601795      0.694069 
H       0.000000     -0.601796     -0.694068 
3
displacement 36
O       0.000000      0.076448     -0.000000 
H      -0.000000     -0.606746      0.688582 
H       0.000000     -0.606747     -0.688581 
3
displacement 37
O       0.000000      0.076867     -0.000000 
H      -0.000000     -0.610070      0.684848 
H      -0.000000     -0.610076     -0.684842 
3
displacement 38
O       0.000000      0.077078      0.000000 
H      -0.000000     -0.611745      0.682952 
H      -0.000000     -0.611739     -0.682958 
3
displacement 39
O       0.000000      0.077078      0.000000 
H      -0.000000     -0.611745      0.682952 
H      -0.000000     -0.611739     -0.682958 
3
displacement 40
O       0.000000      0.076867     -0.000000 
H      -0.000000     -0.610070      0.684848 
H      -0.000000     -0.610076     -0.684842 
3
displacement 41
O       0.000000      0.076448     -0.000000 
H      -0.000000     -0.606746      0.688582 
H       0.000000     -0.606747     -0.688581 
3
displacement 42
O       0.000000      0.075825     -0.000000 
H      -0.000000     -0.601795      0.694069 
H       0.000000     -0.601796     -0.694068 
3
displacement 43
O      -0.000000      0.075000      0.000000 
H      -0.000000     -0.595254      0.701184 
H       0.000000     -0.595253     -0.701186 
3
displacement 44
O      -0.000000      0.073983      0.000000 
H      -0.000000     -0.587179      0.709764 
H       0.000000     -0.587177     -0.709767 
3
displacement 45
O       0.000000      0.072783     -0.000000 
H      -0.000000     -0.577655      0.719604 
H       0.000000     -0.577657     -0.719602 
3
displacement 46
O      -0.000000      0.071413      0.000000 
H      -0.000000     -0.566784      0.730483 
H       0.000000     -0.566783     -0.730484 
3
displacement 47
O      -0.000000      0.069888      0.000000 
H      -0.000000     -0.554679      0.742170 
H       0.000000     -0.554678     -0.742171 
3
displacement 48
O      -0.000000      0.068227      0.000000 
H      -0.000000     -0.541497      0.754412 
H       0.000000     -0.541496     -0.754412 
3
displacement 49
O       0.000000      0.066453     -0.000000 
H      -0.000000     -0.527418      0.766953 
H       0.000000     -0.527418     -0.766953 
3
displacement 50
O      -0.000000      0.064590      0.000000 
H      -0.000000     -0.512633      0.779560 
H       0.000000     -0.512632     -0.779561 
